data_generated_by_bilbao_crystallographic_server

_cell_length_a                   10.4424 
_cell_length_b                   10.4424 
_cell_length_c                   10.4424 
_cell_angle_alpha                84.64 
_cell_angle_beta                 84.64 
_cell_angle_gamma                84.64        
_symmetry_space_group_name_H-M   'I23' 
_symmetry_Int_Tables_number      197 

loop_
_symmetry_equiv_pos_site_id
_symmetry_equiv_pos_as_xyz
1    'x,y,z'
2    '-x,-y,z'
3    '-x,y,-z'
4    'x,-y,-z'
5    'z,x,y'
6    'z,-x,-y'
7    '-z,-x,y'
8    '-z,x,-y'
9    'y,z,x'
10   '-y,z,-x'
11   'y,-z,-x'
12   '-y,-z,x'
13   'x+1/2,y+1/2,z+1/2'
14   '-x+1/2,-y+1/2,z+1/2'
15   '-x+1/2,y+1/2,-z+1/2'
16   'x+1/2,-y+1/2,-z+1/2'
17   'z+1/2,x+1/2,y+1/2'
18   'z+1/2,-x+1/2,-y+1/2'
19   '-z+1/2,-x+1/2,y+1/2'
20   '-z+1/2,x+1/2,-y+1/2'
21   'y+1/2,z+1/2,x+1/2'
22   '-y+1/2,z+1/2,-x+1/2'
23   'y+1/2,-z+1/2,-x+1/2'
24   '-y+1/2,-z+1/2,x+1/2'

loop_
_atom_site_label 
_atom_site_type_symbol 
_atom_site_symmetry_multiplicity 
_atom_site_Wyckoff_symbol 
_atom_site_fract_x 
_atom_site_fract_y 
_atom_site_fract_z 
Ba1  Ba ? ?  0.00000  0.00000  1.00000
Mn2  Mn ? ?  0.00000  1.00000  0.00000
H3    H ? ?  0.33055  0.33361  0.84371
H10   H ? ?  0.11333  0.48119  0.88947
C11   C ? ?  0.34750  0.29113  0.85444
C12   C ? ?  0.50000  0.00000  0.00000
Br15 Br ? ?  0.86353  0.06830  0.06817
O17   O ? ?  0.50000  0.00000  0.00000
