data_generated_by_bilbao_crystallographic_server

_cell_length_a                   16.5659 
_cell_length_b                   16.5659 
_cell_length_c                   16.5659 
_cell_angle_alpha                116.17 
_cell_angle_beta                 116.17 
_cell_angle_gamma                116.17        
_symmetry_space_group_name_H-M   'F23' 
_symmetry_Int_Tables_number      196 

loop_
_symmetry_equiv_pos_site_id
_symmetry_equiv_pos_as_xyz
1    'x,y,z'
2    '-x,-y,z'
3    '-x,y,-z'
4    'x,-y,-z'
5    'z,x,y'
6    'z,-x,-y'
7    '-z,-x,y'
8    '-z,x,-y'
9    'y,z,x'
10   '-y,z,-x'
11   'y,-z,-x'
12   '-y,-z,x'
13   'x,y+1/2,z+1/2'
14   '-x,-y+1/2,z+1/2'
15   '-x,y+1/2,-z+1/2'
16   'x,-y+1/2,-z+1/2'
17   'z,x+1/2,y+1/2'
18   'z,-x+1/2,-y+1/2'
19   '-z,-x+1/2,y+1/2'
20   '-z,x+1/2,-y+1/2'
21   'y,z+1/2,x+1/2'
22   '-y,z+1/2,-x+1/2'
23   'y,-z+1/2,-x+1/2'
24   '-y,-z+1/2,x+1/2'
25   'x+1/2,y,z+1/2'
26   '-x+1/2,-y,z+1/2'
27   '-x+1/2,y,-z+1/2'
28   'x+1/2,-y,-z+1/2'
29   'z+1/2,x,y+1/2'
30   'z+1/2,-x,-y+1/2'
31   '-z+1/2,-x,y+1/2'
32   '-z+1/2,x,-y+1/2'
33   'y+1/2,z,x+1/2'
34   '-y+1/2,z,-x+1/2'
35   'y+1/2,-z,-x+1/2'
36   '-y+1/2,-z,x+1/2'
37   'x+1/2,y+1/2,z'
38   '-x+1/2,-y+1/2,z'
39   '-x+1/2,y+1/2,-z'
40   'x+1/2,-y+1/2,-z'
41   'z+1/2,x+1/2,y'
42   'z+1/2,-x+1/2,-y'
43   '-z+1/2,-x+1/2,y'
44   '-z+1/2,x+1/2,-y'
45   'y+1/2,z+1/2,x'
46   '-y+1/2,z+1/2,-x'
47   'y+1/2,-z+1/2,-x'
48   '-y+1/2,-z+1/2,x'

loop_
_atom_site_label 
_atom_site_type_symbol 
_atom_site_symmetry_multiplicity 
_atom_site_Wyckoff_symbol 
_atom_site_fract_x 
_atom_site_fract_y 
_atom_site_fract_z 
Ba1  Ba ? ?  0.00000  0.00000  0.50000
Mn2  Mn ? ?  0.75000  0.75000  0.25000
H3    H ? ?  0.29478  0.29776  0.51842
H10   H ? ?  0.10267  0.22605  0.39315
C11   C ? ?  0.18935  0.15558  0.40518
C12   C ? ?  0.35359  0.09852  0.59602
Br15 Br ? ?  0.68177  0.78415  0.28409
Br16 Br ? ?  0.52185  0.56900  0.02191
O17   O ? ?  0.30946  0.11426  0.57844
