data_generated_by_bilbao_crystallographic_server

_cell_length_a                   8.7575 
_cell_length_b                   8.7575 
_cell_length_c                   8.7575 
_cell_angle_alpha                106.80 
_cell_angle_beta                 106.80 
_cell_angle_gamma                106.80        
_symmetry_space_group_name_H-M   'P23' 
_symmetry_Int_Tables_number      195 

loop_
_symmetry_equiv_pos_site_id
_symmetry_equiv_pos_as_xyz
1    'x,y,z'
2    '-x,-y,z'
3    '-x,y,-z'
4    'x,-y,-z'
5    'z,x,y'
6    'z,-x,-y'
7    '-z,-x,y'
8    '-z,x,-y'
9    'y,z,x'
10   '-y,z,-x'
11   'y,-z,-x'
12   '-y,-z,x'

loop_
_atom_site_label 
_atom_site_type_symbol 
_atom_site_symmetry_multiplicity 
_atom_site_Wyckoff_symbol 
_atom_site_fract_x 
_atom_site_fract_y 
_atom_site_fract_z 
Ba1  Ba ? ?  1.00000  0.00000  1.00000
Mn2  Mn ? ?  0.50000  0.50000  0.50000
H5    H ? ?  0.86682  0.26052  0.24157
H6    H ? ?  0.57813  0.17427  0.15546
H10   H ? ?  0.91446  0.59555  0.27012
C11   C ? ?  0.79251  0.85368  0.32880
C12   C ? ?  0.72953  0.08425  0.12125
Br15 Br ? ?  0.63647  0.43170  0.43183
O17   O ? ?  0.78278  0.04872  0.04713
